<?xml version="1.0" encoding="UTF-8"?>
<configuration>
  <input>
    <net-file value="/home/hatada/work/simple-cctc/data/one.net.xml"/>
    <route-files value="/home/hatada/work/simple-cctc/data/one.rou.xml"/>
  </input>
  <time>
    <begin value="0"/>
    <end value="300"/>
    <step-length value="0.1"/>
  </time>
  <report>
    <verbose value="true"/>
    <no-step-log value="true"/>
  </report>
</configuration>
