<?xml version="1.0" encoding="UTF-8"?>

<!-- generated on 2025-10-13 10:43:28 by Eclipse SUMO netconvert Version 1.11.0
<configuration xmlns:xsi="http://www.w3.org/2001/XMLSchema-instance" xsi:noNamespaceSchemaLocation="http://sumo.dlr.de/xsd/netconvertConfiguration.xsd">

    <input>
        <node-files value="data/one.nod.xml"/>
        <edge-files value="data/one.edg.xml"/>
    </input>

    <output>
        <output-file value="data/one.net.xml"/>
    </output>

    <report>
        <aggregate-warnings value="5"/>
    </report>

</configuration>
-->

<net version="1.9" junctionCornerDetail="5" limitTurnSpeed="5.50" xmlns:xsi="http://www.w3.org/2001/XMLSchema-instance" xsi:noNamespaceSchemaLocation="http://sumo.dlr.de/xsd/net_file.xsd">

    <location netOffset="0.00,0.00" convBoundary="0.00,0.00,5000.00,0.00" origBoundary="0.00,0.00,5000.00,0.00" projParameter="!"/>

    <edge id="A0B0" from="A0" to="B0" priority="1">
        <lane id="A0B0_0" index="0" speed="33.33" length="5000.00" shape="0.00,-1.60 5000.00,-1.60"/>
    </edge>

    <junction id="A0" type="dead_end" x="0.00" y="0.00" incLanes="" intLanes="" shape="0.00,0.00 0.00,-3.20"/>
    <junction id="B0" type="dead_end" x="5000.00" y="0.00" incLanes="A0B0_0" intLanes="" shape="5000.00,-3.20 5000.00,0.00"/>

</net>
