<?xml version="1.0" encoding="UTF-8"?>
<nodes>
  <node id="A0" x="0.0"    y="0.0" type="priority"/>
  <node id="B0" x="5000.0" y="0.0" type="priority"/>
</nodes>
